<?xml version="1.0" encoding="UTF-8"?>
<routes>
    <vType id="coche" accel="2.6" decel="4.5" sigma="0.5" length="5" maxSpeed="50" color="yellow"/>
    <vType id="moto" accel="4.0" decel="6.0" sigma="0.5" length="2.2" maxSpeed="60" color="blue"/>
    <vType id="bus" accel="1.2" decel="4.0" sigma="0.3" length="12" maxSpeed="30" color="green"/>
    <vType id="camion" accel="1.0" decel="3.5" sigma="0.5" length="10" maxSpeed="25" color="gray"/>
    <vType id="emergencia" accel="3.5" decel="5.0" sigma="0.2" length="6" maxSpeed="70" color="red"/>
    
    <route id="r_ns" edges="north_in south_out"/>
    <route id="r_sn" edges="south_in north_out"/>
    <route id="r_ew" edges="east_in west_out"/>
    <route id="r_we" edges="west_in east_out"/>
    <route id="r_ne" edges="north_in east_out"/>
    <route id="r_nw" edges="north_in west_out"/>
    <route id="r_se" edges="south_in east_out"/>
    <route id="r_sw" edges="south_in west_out"/>
    
    <flow id="c_ns" type="coche" route="r_ns" begin="0" end="3600" vehsPerHour="400" departLane="best"/>
    <flow id="c_sn" type="coche" route="r_sn" begin="0" end="3600" vehsPerHour="350" departLane="best"/>
    <flow id="c_ew" type="coche" route="r_ew" begin="0" end="3600" vehsPerHour="300" departLane="best"/>
    <flow id="c_we" type="coche" route="r_we" begin="0" end="3600" vehsPerHour="280" departLane="best"/>
    <flow id="c_ne" type="coche" route="r_ne" begin="0" end="3600" vehsPerHour="60" departLane="best"/>
    <flow id="c_nw" type="coche" route="r_nw" begin="0" end="3600" vehsPerHour="60" departLane="best"/>
    <flow id="m_ns" type="moto" route="r_ns" begin="0" end="3600" vehsPerHour="80"/>
    <flow id="m_ew" type="moto" route="r_ew" begin="0" end="3600" vehsPerHour="60"/>
    <flow id="b_ns" type="bus" route="r_ns" begin="0" end="3600" period="300"/>
    <flow id="b_ew" type="bus" route="r_ew" begin="150" end="3600" period="360"/>
    <flow id="t_ns" type="camion" route="r_ns" begin="0" end="3600" vehsPerHour="30"/>
    <flow id="e_ns" type="emergencia" route="r_ns" begin="600" end="3600" period="900"/>
</routes>