<?xml version="1.0" encoding="UTF-8"?>
<routes>
    <vType id="coche" accel="2.6" decel="4.5" sigma="0.5" length="5" maxSpeed="50" color="yellow"/>
    <vType id="coche_rapido" accel="3.0" decel="5.0" sigma="0.4" length="4.5" maxSpeed="70" color="orange"/>
    <vType id="moto" accel="4.0" decel="6.0" sigma="0.5" length="2.2" maxSpeed="60" color="blue"/>
    <vType id="bus" accel="1.2" decel="4.0" sigma="0.3" length="12" maxSpeed="30" color="green"/>
    <vType id="camion" accel="1.0" decel="3.5" sigma="0.5" length="12" maxSpeed="25" color="gray"/>
    <vType id="emergencia" accel="3.5" decel="5.0" sigma="0.2" length="6" maxSpeed="80" color="red"/>
    
    <route id="r_ns" edges="north_in south_out"/>
    <route id="r_sn" edges="south_in north_out"/>
    <route id="r_ew" edges="east_in west_out"/>
    <route id="r_we" edges="west_in east_out"/>
    <route id="r_ne" edges="north_in east_out"/>
    <route id="r_nw" edges="north_in west_out"/>
    
    <!-- Avenida: MUCHO tráfico N-S -->
    <flow id="c_ns" type="coche" route="r_ns" begin="0" end="3600" vehsPerHour="700" departLane="best"/>
    <flow id="c_sn" type="coche" route="r_sn" begin="0" end="3600" vehsPerHour="650" departLane="best"/>
    <flow id="cr_ns" type="coche_rapido" route="r_ns" begin="0" end="3600" vehsPerHour="200" departLane="best"/>
    <flow id="cr_sn" type="coche_rapido" route="r_sn" begin="0" end="3600" vehsPerHour="180" departLane="best"/>
    <!-- Calles secundarias: menos tráfico -->
    <flow id="c_ew" type="coche" route="r_ew" begin="0" end="3600" vehsPerHour="200" departLane="best"/>
    <flow id="c_we" type="coche" route="r_we" begin="0" end="3600" vehsPerHour="180" departLane="best"/>
    <!-- Giros -->
    <flow id="c_ne" type="coche" route="r_ne" begin="0" end="3600" vehsPerHour="80" departLane="best"/>
    <flow id="c_nw" type="coche" route="r_nw" begin="0" end="3600" vehsPerHour="70" departLane="best"/>
    <!-- Motos -->
    <flow id="m_ns" type="moto" route="r_ns" begin="0" end="3600" vehsPerHour="120"/>
    <flow id="m_sn" type="moto" route="r_sn" begin="0" end="3600" vehsPerHour="100"/>
    <!-- Buses (línea de avenida) -->
    <flow id="b_ns" type="bus" route="r_ns" begin="0" end="3600" period="180"/>
    <flow id="b_sn" type="bus" route="r_sn" begin="90" end="3600" period="180"/>
    <!-- Camiones -->
    <flow id="t_ns" type="camion" route="r_ns" begin="0" end="3600" vehsPerHour="40"/>
    <!-- Emergencias -->
    <flow id="e_ns" type="emergencia" route="r_ns" begin="300" end="3600" period="600"/>
</routes>