<?xml version="1.0" encoding="UTF-8"?>

<!-- generated on 2026-02-23 11:21:46 by Eclipse SUMO netconvert Version 1.21.0
<netconvertConfiguration xmlns:xsi="http://www.w3.org/2001/XMLSchema-instance" xsi:noNamespaceSchemaLocation="http://sumo.dlr.de/xsd/netconvertConfiguration.xsd">

    <input>
        <node-files value="simulations/cruce_t/nodes.nod.xml"/>
        <edge-files value="simulations/cruce_t/edges.edg.xml"/>
    </input>

    <output>
        <output-file value="simulations/cruce_t/intersection.net.xml"/>
    </output>

    <tls_building>
        <tls.guess value="true"/>
    </tls_building>

    <report>
        <no-warnings value="true"/>
    </report>

</netconvertConfiguration>
-->

<net version="1.20" junctionCornerDetail="5" limitTurnSpeed="5.50" xmlns:xsi="http://www.w3.org/2001/XMLSchema-instance" xsi:noNamespaceSchemaLocation="http://sumo.dlr.de/xsd/net_file.xsd">

    <location netOffset="100.00,0.00" convBoundary="0.00,0.00,200.00,100.00" origBoundary="-100.00,0.00,100.00,100.00" projParameter="!"/>

    <edge id=":center_0" function="internal">
        <lane id=":center_0_0" index="0" speed="6.51" length="9.03" shape="95.20,10.40 94.85,7.95 93.80,6.20 92.05,5.15 89.60,4.80"/>
        <lane id=":center_0_1" index="1" speed="8.00" length="14.19" shape="98.40,10.40 97.85,6.55 96.20,3.80 93.45,2.15 89.60,1.60"/>
    </edge>
    <edge id=":center_2" function="internal">
        <lane id=":center_2_0" index="0" speed="9.26" length="19.35" shape="98.40,10.40 99.15,5.15 101.40,1.40 105.15,-0.85 110.40,-1.60"/>
    </edge>
    <edge id=":center_3" function="internal">
        <lane id=":center_3_0" index="0" speed="3.65" length="2.34" shape="98.40,10.40 99.20,9.20 100.00,8.80"/>
    </edge>
    <edge id=":center_12" function="internal">
        <lane id=":center_12_0" index="0" speed="3.65" length="2.34" shape="100.00,8.80 100.80,9.20 101.60,10.40"/>
    </edge>
    <edge id=":center_4" function="internal">
        <lane id=":center_4_0" index="0" speed="6.51" length="9.03" shape="110.40,4.80 107.95,5.15 106.20,6.20 105.15,7.95 104.80,10.40"/>
    </edge>
    <edge id=":center_5" function="internal">
        <lane id=":center_5_0" index="0" speed="13.89" length="20.80" shape="110.40,4.80 89.60,4.80"/>
        <lane id=":center_5_1" index="1" speed="13.89" length="20.80" shape="110.40,1.60 89.60,1.60"/>
    </edge>
    <edge id=":center_7" function="internal">
        <lane id=":center_7_0" index="0" speed="3.65" length="1.44" shape="110.40,1.60 109.20,0.80"/>
    </edge>
    <edge id=":center_13" function="internal">
        <lane id=":center_13_0" index="0" speed="3.65" length="3.23" shape="109.20,0.80 108.80,0.00 109.20,-0.80 110.40,-1.60"/>
    </edge>
    <edge id=":center_8" function="internal">
        <lane id=":center_8_0" index="0" speed="13.89" length="20.80" shape="89.60,-4.80 110.40,-4.80"/>
        <lane id=":center_8_1" index="1" speed="13.89" length="20.80" shape="89.60,-1.60 110.40,-1.60"/>
    </edge>
    <edge id=":center_10" function="internal">
        <lane id=":center_10_0" index="0" speed="9.26" length="5.01" shape="89.60,-1.60 94.56,-0.89"/>
    </edge>
    <edge id=":center_11" function="internal">
        <lane id=":center_11_0" index="0" speed="3.65" length="1.44" shape="89.60,-1.60 90.80,-0.80"/>
    </edge>
    <edge id=":center_14" function="internal">
        <lane id=":center_14_0" index="0" speed="9.26" length="14.34" shape="94.56,-0.89 94.85,-0.85 98.60,1.40 100.85,5.15 101.60,10.40"/>
    </edge>
    <edge id=":center_15" function="internal">
        <lane id=":center_15_0" index="0" speed="3.65" length="3.23" shape="90.80,-0.80 91.20,0.00 90.80,0.80 89.60,1.60"/>
    </edge>
    <edge id=":east_0" function="internal">
        <lane id=":east_0_0" index="0" speed="3.65" length="4.67" shape="200.00,-1.60 201.20,-0.80 201.60,0.00 201.20,0.80 200.00,1.60"/>
    </edge>
    <edge id=":north_0" function="internal">
        <lane id=":north_0_0" index="0" speed="3.65" length="4.67" shape="101.60,100.00 100.80,101.20 100.00,101.60 99.20,101.20 98.40,100.00"/>
    </edge>
    <edge id=":west_0" function="internal">
        <lane id=":west_0_0" index="0" speed="3.65" length="4.67" shape="0.00,1.60 -1.20,0.80 -1.60,0.00 -1.20,-0.80 0.00,-1.60"/>
    </edge>

    <edge id="east_in" from="east" to="center" priority="-1">
        <lane id="east_in_0" index="0" speed="13.89" length="89.60" shape="200.00,4.80 110.40,4.80"/>
        <lane id="east_in_1" index="1" speed="13.89" length="89.60" shape="200.00,1.60 110.40,1.60"/>
    </edge>
    <edge id="east_out" from="center" to="east" priority="-1">
        <lane id="east_out_0" index="0" speed="13.89" length="89.60" shape="110.40,-4.80 200.00,-4.80"/>
        <lane id="east_out_1" index="1" speed="13.89" length="89.60" shape="110.40,-1.60 200.00,-1.60"/>
    </edge>
    <edge id="north_in" from="north" to="center" priority="-1">
        <lane id="north_in_0" index="0" speed="13.89" length="89.60" shape="95.20,100.00 95.20,10.40"/>
        <lane id="north_in_1" index="1" speed="13.89" length="89.60" shape="98.40,100.00 98.40,10.40"/>
    </edge>
    <edge id="north_out" from="center" to="north" priority="-1">
        <lane id="north_out_0" index="0" speed="13.89" length="89.60" shape="104.80,10.40 104.80,100.00"/>
        <lane id="north_out_1" index="1" speed="13.89" length="89.60" shape="101.60,10.40 101.60,100.00"/>
    </edge>
    <edge id="west_in" from="west" to="center" priority="-1">
        <lane id="west_in_0" index="0" speed="13.89" length="89.60" shape="0.00,-4.80 89.60,-4.80"/>
        <lane id="west_in_1" index="1" speed="13.89" length="89.60" shape="0.00,-1.60 89.60,-1.60"/>
    </edge>
    <edge id="west_out" from="center" to="west" priority="-1">
        <lane id="west_out_0" index="0" speed="13.89" length="89.60" shape="89.60,4.80 0.00,4.80"/>
        <lane id="west_out_1" index="1" speed="13.89" length="89.60" shape="89.60,1.60 0.00,1.60"/>
    </edge>

    <tlLogic id="center" type="static" programID="0" offset="0">
        <phase duration="42" state="rrrrGGGgGGgg"/>
        <phase duration="3"  state="rrrrGyyyyyyy"/>
        <phase duration="42" state="GGGgGrrrrrrr"/>
        <phase duration="3"  state="yyyyGrrrrrrr"/>
    </tlLogic>

    <junction id="center" type="traffic_light" x="100.00" y="0.00" incLanes="north_in_0 north_in_1 east_in_0 east_in_1 west_in_0 west_in_1" intLanes=":center_0_0 :center_0_1 :center_2_0 :center_12_0 :center_4_0 :center_5_0 :center_5_1 :center_13_0 :center_8_0 :center_8_1 :center_14_0 :center_15_0" shape="93.60,10.40 106.40,10.40 106.84,8.18 107.40,7.40 108.18,6.84 109.18,6.51 110.40,6.40 110.40,-6.40 89.60,-6.40 89.60,6.40 91.82,6.84 92.60,7.40 93.16,8.18 93.49,9.18">
        <request index="0"  response="000001100000" foes="100001100000" cont="0"/>
        <request index="1"  response="000001100000" foes="100001100000" cont="0"/>
        <request index="2"  response="011101100000" foes="011111100000" cont="0"/>
        <request index="3"  response="010000000000" foes="010000000000" cont="1"/>
        <request index="4"  response="000000000000" foes="000000000000" cont="0"/>
        <request index="5"  response="000000000000" foes="110000000111" cont="0"/>
        <request index="6"  response="000000000000" foes="110000000111" cont="0"/>
        <request index="7"  response="001100000100" foes="001100000100" cont="1"/>
        <request index="8"  response="000000000000" foes="000010000100" cont="0"/>
        <request index="9"  response="000000000000" foes="000010000100" cont="0"/>
        <request index="10" response="000001100000" foes="000001101100" cont="1"/>
        <request index="11" response="000001100011" foes="000001100011" cont="1"/>
    </junction>
    <junction id="east" type="priority" x="200.00" y="0.00" incLanes="east_out_0 east_out_1" intLanes=":east_0_0" shape="200.00,0.00 200.00,-6.40 200.00,0.00">
        <request index="0" response="0" foes="0" cont="0"/>
    </junction>
    <junction id="north" type="priority" x="100.00" y="100.00" incLanes="north_out_0 north_out_1" intLanes=":north_0_0" shape="100.00,100.00 106.40,100.00 100.00,100.00">
        <request index="0" response="0" foes="0" cont="0"/>
    </junction>
    <junction id="west" type="priority" x="0.00" y="0.00" incLanes="west_out_0 west_out_1" intLanes=":west_0_0" shape="0.00,0.00 0.00,6.40 0.00,0.00">
        <request index="0" response="0" foes="0" cont="0"/>
    </junction>

    <junction id=":center_12_0" type="internal" x="100.00" y="8.80" incLanes=":center_3_0 east_in_0 west_in_1" intLanes=":center_4_0 :center_10_0"/>
    <junction id=":center_13_0" type="internal" x="109.20" y="0.80" incLanes=":center_7_0 north_in_1 west_in_0 west_in_1" intLanes=":center_2_0 :center_8_0 :center_8_1"/>
    <junction id=":center_14_0" type="internal" x="94.56" y="-0.89" incLanes=":center_10_0 east_in_0 east_in_1" intLanes=":center_2_0 :center_3_0 :center_4_0 :center_5_0 :center_5_1"/>
    <junction id=":center_15_0" type="internal" x="90.80" y="-0.80" incLanes=":center_11_0 east_in_0 east_in_1 north_in_0 north_in_1" intLanes=":center_0_0 :center_0_1 :center_5_0 :center_5_1"/>

    <connection from="east_in" to="north_out" fromLane="0" toLane="0" via=":center_4_0" tl="center" linkIndex="4" dir="r" state="O"/>
    <connection from="east_in" to="west_out" fromLane="0" toLane="0" via=":center_5_0" tl="center" linkIndex="5" dir="s" state="O"/>
    <connection from="east_in" to="west_out" fromLane="1" toLane="1" via=":center_5_1" tl="center" linkIndex="6" dir="s" state="O"/>
    <connection from="east_in" to="east_out" fromLane="1" toLane="1" via=":center_7_0" tl="center" linkIndex="7" dir="t" state="o"/>
    <connection from="east_out" to="east_in" fromLane="1" toLane="1" via=":east_0_0" dir="t" state="M"/>
    <connection from="north_in" to="west_out" fromLane="0" toLane="0" via=":center_0_0" tl="center" linkIndex="0" dir="r" state="o"/>
    <connection from="north_in" to="west_out" fromLane="1" toLane="1" via=":center_0_1" tl="center" linkIndex="1" dir="r" state="o"/>
    <connection from="north_in" to="east_out" fromLane="1" toLane="1" via=":center_2_0" tl="center" linkIndex="2" dir="l" state="o"/>
    <connection from="north_in" to="north_out" fromLane="1" toLane="1" via=":center_3_0" tl="center" linkIndex="3" dir="t" state="o"/>
    <connection from="north_out" to="north_in" fromLane="1" toLane="1" via=":north_0_0" dir="t" state="M"/>
    <connection from="west_in" to="east_out" fromLane="0" toLane="0" via=":center_8_0" tl="center" linkIndex="8" dir="s" state="O"/>
    <connection from="west_in" to="east_out" fromLane="1" toLane="1" via=":center_8_1" tl="center" linkIndex="9" dir="s" state="O"/>
    <connection from="west_in" to="north_out" fromLane="1" toLane="1" via=":center_10_0" tl="center" linkIndex="10" dir="l" state="o"/>
    <connection from="west_in" to="west_out" fromLane="1" toLane="1" via=":center_11_0" tl="center" linkIndex="11" dir="t" state="o"/>
    <connection from="west_out" to="west_in" fromLane="1" toLane="1" via=":west_0_0" dir="t" state="M"/>

    <connection from=":center_0" to="west_out" fromLane="0" toLane="0" dir="r" state="M"/>
    <connection from=":center_0" to="west_out" fromLane="1" toLane="1" dir="r" state="M"/>
    <connection from=":center_2" to="east_out" fromLane="0" toLane="1" dir="l" state="M"/>
    <connection from=":center_3" to="north_out" fromLane="0" toLane="1" via=":center_12_0" dir="t" state="m"/>
    <connection from=":center_12" to="north_out" fromLane="0" toLane="1" dir="t" state="M"/>
    <connection from=":center_4" to="north_out" fromLane="0" toLane="0" dir="r" state="M"/>
    <connection from=":center_5" to="west_out" fromLane="0" toLane="0" dir="s" state="M"/>
    <connection from=":center_5" to="west_out" fromLane="1" toLane="1" dir="s" state="M"/>
    <connection from=":center_7" to="east_out" fromLane="0" toLane="1" via=":center_13_0" dir="t" state="m"/>
    <connection from=":center_13" to="east_out" fromLane="0" toLane="1" dir="t" state="M"/>
    <connection from=":center_8" to="east_out" fromLane="0" toLane="0" dir="s" state="M"/>
    <connection from=":center_8" to="east_out" fromLane="1" toLane="1" dir="s" state="M"/>
    <connection from=":center_10" to="north_out" fromLane="0" toLane="1" via=":center_14_0" dir="l" state="m"/>
    <connection from=":center_14" to="north_out" fromLane="0" toLane="1" dir="l" state="M"/>
    <connection from=":center_11" to="west_out" fromLane="0" toLane="1" via=":center_15_0" dir="t" state="m"/>
    <connection from=":center_15" to="west_out" fromLane="0" toLane="1" dir="t" state="M"/>
    <connection from=":east_0" to="east_in" fromLane="0" toLane="1" dir="t" state="M"/>
    <connection from=":north_0" to="north_in" fromLane="0" toLane="1" dir="t" state="M"/>
    <connection from=":west_0" to="west_in" fromLane="0" toLane="1" dir="t" state="M"/>

</net>
