<?xml version="1.0" encoding="UTF-8"?>
<nodes>
    <node id="center" x="0" y="0" type="traffic_light"/>
    <node id="north" x="0" y="100"/>
    <node id="east" x="100" y="0"/>
    <node id="west" x="-100" y="0"/>
</nodes>