<?xml version="1.0" encoding="UTF-8"?>

<!-- generated on 2026-02-23 11:21:46 by Eclipse SUMO netconvert Version 1.21.0
<netconvertConfiguration xmlns:xsi="http://www.w3.org/2001/XMLSchema-instance" xsi:noNamespaceSchemaLocation="http://sumo.dlr.de/xsd/netconvertConfiguration.xsd">

    <input>
        <node-files value="simulations/doble/nodes.nod.xml"/>
        <edge-files value="simulations/doble/edges.edg.xml"/>
    </input>

    <output>
        <output-file value="simulations/doble/intersection.net.xml"/>
    </output>

    <tls_building>
        <tls.guess value="true"/>
    </tls_building>

    <report>
        <no-warnings value="true"/>
    </report>

</netconvertConfiguration>
-->

<net version="1.20" junctionCornerDetail="5" limitTurnSpeed="5.50" xmlns:xsi="http://www.w3.org/2001/XMLSchema-instance" xsi:noNamespaceSchemaLocation="http://sumo.dlr.de/xsd/net_file.xsd">

    <location netOffset="100.00,100.00" convBoundary="0.00,0.00,400.00,200.00" origBoundary="-100.00,-100.00,300.00,100.00" projParameter="!"/>

    <edge id=":center_0" function="internal">
        <lane id=":center_0_0" index="0" speed="6.51" length="9.03" shape="95.20,110.40 94.85,107.95 93.80,106.20 92.05,105.15 89.60,104.80"/>
    </edge>
    <edge id=":center_1" function="internal">
        <lane id=":center_1_0" index="0" speed="13.89" length="20.80" shape="95.20,110.40 95.20,89.60"/>
        <lane id=":center_1_1" index="1" speed="13.89" length="20.80" shape="98.40,110.40 98.40,89.60"/>
    </edge>
    <edge id=":center_3" function="internal">
        <lane id=":center_3_0" index="0" speed="9.26" length="5.01" shape="98.40,110.40 99.11,105.44"/>
    </edge>
    <edge id=":center_4" function="internal">
        <lane id=":center_4_0" index="0" speed="3.65" length="1.44" shape="98.40,110.40 99.20,109.20"/>
    </edge>
    <edge id=":center_20" function="internal">
        <lane id=":center_20_0" index="0" speed="9.26" length="14.34" shape="99.11,105.44 99.15,105.15 101.40,101.40 105.15,99.15 110.40,98.40"/>
    </edge>
    <edge id=":center_21" function="internal">
        <lane id=":center_21_0" index="0" speed="3.65" length="3.23" shape="99.20,109.20 100.00,108.80 100.80,109.20 101.60,110.40"/>
    </edge>
    <edge id=":center_5" function="internal">
        <lane id=":center_5_0" index="0" speed="6.51" length="9.03" shape="110.40,104.80 107.95,105.15 106.20,106.20 105.15,107.95 104.80,110.40"/>
    </edge>
    <edge id=":center_6" function="internal">
        <lane id=":center_6_0" index="0" speed="13.89" length="20.80" shape="110.40,104.80 89.60,104.80"/>
        <lane id=":center_6_1" index="1" speed="13.89" length="20.80" shape="110.40,101.60 89.60,101.60"/>
    </edge>
    <edge id=":center_8" function="internal">
        <lane id=":center_8_0" index="0" speed="9.26" length="5.01" shape="110.40,101.60 105.44,100.89"/>
    </edge>
    <edge id=":center_9" function="internal">
        <lane id=":center_9_0" index="0" speed="3.65" length="1.44" shape="110.40,101.60 109.20,100.80"/>
    </edge>
    <edge id=":center_22" function="internal">
        <lane id=":center_22_0" index="0" speed="9.26" length="14.34" shape="105.44,100.89 105.15,100.85 101.40,98.60 99.15,94.85 98.40,89.60"/>
    </edge>
    <edge id=":center_23" function="internal">
        <lane id=":center_23_0" index="0" speed="3.65" length="3.23" shape="109.20,100.80 108.80,100.00 109.20,99.20 110.40,98.40"/>
    </edge>
    <edge id=":center_10" function="internal">
        <lane id=":center_10_0" index="0" speed="6.51" length="9.03" shape="104.80,89.60 105.15,92.05 106.20,93.80 107.95,94.85 110.40,95.20"/>
    </edge>
    <edge id=":center_11" function="internal">
        <lane id=":center_11_0" index="0" speed="13.89" length="20.80" shape="104.80,89.60 104.80,110.40"/>
        <lane id=":center_11_1" index="1" speed="13.89" length="20.80" shape="101.60,89.60 101.60,110.40"/>
    </edge>
    <edge id=":center_13" function="internal">
        <lane id=":center_13_0" index="0" speed="9.26" length="5.01" shape="101.60,89.60 100.89,94.56"/>
    </edge>
    <edge id=":center_14" function="internal">
        <lane id=":center_14_0" index="0" speed="3.65" length="1.44" shape="101.60,89.60 100.80,90.80"/>
    </edge>
    <edge id=":center_24" function="internal">
        <lane id=":center_24_0" index="0" speed="9.26" length="14.34" shape="100.89,94.56 100.85,94.85 98.60,98.60 94.85,100.85 89.60,101.60"/>
    </edge>
    <edge id=":center_25" function="internal">
        <lane id=":center_25_0" index="0" speed="3.65" length="3.23" shape="100.80,90.80 100.00,91.20 99.20,90.80 98.40,89.60"/>
    </edge>
    <edge id=":center_15" function="internal">
        <lane id=":center_15_0" index="0" speed="6.51" length="9.03" shape="89.60,95.20 92.05,94.85 93.80,93.80 94.85,92.05 95.20,89.60"/>
    </edge>
    <edge id=":center_16" function="internal">
        <lane id=":center_16_0" index="0" speed="13.89" length="20.80" shape="89.60,95.20 110.40,95.20"/>
        <lane id=":center_16_1" index="1" speed="13.89" length="20.80" shape="89.60,98.40 110.40,98.40"/>
    </edge>
    <edge id=":center_18" function="internal">
        <lane id=":center_18_0" index="0" speed="9.26" length="5.01" shape="89.60,98.40 94.56,99.11"/>
    </edge>
    <edge id=":center_19" function="internal">
        <lane id=":center_19_0" index="0" speed="3.65" length="1.44" shape="89.60,98.40 90.80,99.20"/>
    </edge>
    <edge id=":center_26" function="internal">
        <lane id=":center_26_0" index="0" speed="9.26" length="14.34" shape="94.56,99.11 94.85,99.15 98.60,101.40 100.85,105.15 101.60,110.40"/>
    </edge>
    <edge id=":center_27" function="internal">
        <lane id=":center_27_0" index="0" speed="3.65" length="3.23" shape="90.80,99.20 91.20,100.00 90.80,100.80 89.60,101.60"/>
    </edge>
    <edge id=":center2_0" function="internal">
        <lane id=":center2_0_0" index="0" speed="6.51" length="9.03" shape="295.20,110.40 294.85,107.95 293.80,106.20 292.05,105.15 289.60,104.80"/>
    </edge>
    <edge id=":center2_1" function="internal">
        <lane id=":center2_1_0" index="0" speed="13.89" length="20.80" shape="295.20,110.40 295.20,89.60"/>
        <lane id=":center2_1_1" index="1" speed="13.89" length="20.80" shape="298.40,110.40 298.40,89.60"/>
    </edge>
    <edge id=":center2_3" function="internal">
        <lane id=":center2_3_0" index="0" speed="9.26" length="5.01" shape="298.40,110.40 299.11,105.44"/>
    </edge>
    <edge id=":center2_4" function="internal">
        <lane id=":center2_4_0" index="0" speed="3.65" length="1.44" shape="298.40,110.40 299.20,109.20"/>
    </edge>
    <edge id=":center2_20" function="internal">
        <lane id=":center2_20_0" index="0" speed="9.26" length="14.34" shape="299.11,105.44 299.15,105.15 301.40,101.40 305.15,99.15 310.40,98.40"/>
    </edge>
    <edge id=":center2_21" function="internal">
        <lane id=":center2_21_0" index="0" speed="3.65" length="3.23" shape="299.20,109.20 300.00,108.80 300.80,109.20 301.60,110.40"/>
    </edge>
    <edge id=":center2_5" function="internal">
        <lane id=":center2_5_0" index="0" speed="6.51" length="9.03" shape="310.40,104.80 307.95,105.15 306.20,106.20 305.15,107.95 304.80,110.40"/>
    </edge>
    <edge id=":center2_6" function="internal">
        <lane id=":center2_6_0" index="0" speed="13.89" length="20.80" shape="310.40,104.80 289.60,104.80"/>
        <lane id=":center2_6_1" index="1" speed="13.89" length="20.80" shape="310.40,101.60 289.60,101.60"/>
    </edge>
    <edge id=":center2_8" function="internal">
        <lane id=":center2_8_0" index="0" speed="9.26" length="5.01" shape="310.40,101.60 305.44,100.89"/>
    </edge>
    <edge id=":center2_9" function="internal">
        <lane id=":center2_9_0" index="0" speed="3.65" length="1.44" shape="310.40,101.60 309.20,100.80"/>
    </edge>
    <edge id=":center2_22" function="internal">
        <lane id=":center2_22_0" index="0" speed="9.26" length="14.34" shape="305.44,100.89 305.15,100.85 301.40,98.60 299.15,94.85 298.40,89.60"/>
    </edge>
    <edge id=":center2_23" function="internal">
        <lane id=":center2_23_0" index="0" speed="3.65" length="3.23" shape="309.20,100.80 308.80,100.00 309.20,99.20 310.40,98.40"/>
    </edge>
    <edge id=":center2_10" function="internal">
        <lane id=":center2_10_0" index="0" speed="6.51" length="9.03" shape="304.80,89.60 305.15,92.05 306.20,93.80 307.95,94.85 310.40,95.20"/>
    </edge>
    <edge id=":center2_11" function="internal">
        <lane id=":center2_11_0" index="0" speed="13.89" length="20.80" shape="304.80,89.60 304.80,110.40"/>
        <lane id=":center2_11_1" index="1" speed="13.89" length="20.80" shape="301.60,89.60 301.60,110.40"/>
    </edge>
    <edge id=":center2_13" function="internal">
        <lane id=":center2_13_0" index="0" speed="9.26" length="5.01" shape="301.60,89.60 300.89,94.56"/>
    </edge>
    <edge id=":center2_14" function="internal">
        <lane id=":center2_14_0" index="0" speed="3.65" length="1.44" shape="301.60,89.60 300.80,90.80"/>
    </edge>
    <edge id=":center2_24" function="internal">
        <lane id=":center2_24_0" index="0" speed="9.26" length="14.34" shape="300.89,94.56 300.85,94.85 298.60,98.60 294.85,100.85 289.60,101.60"/>
    </edge>
    <edge id=":center2_25" function="internal">
        <lane id=":center2_25_0" index="0" speed="3.65" length="3.23" shape="300.80,90.80 300.00,91.20 299.20,90.80 298.40,89.60"/>
    </edge>
    <edge id=":center2_15" function="internal">
        <lane id=":center2_15_0" index="0" speed="6.51" length="9.03" shape="289.60,95.20 292.05,94.85 293.80,93.80 294.85,92.05 295.20,89.60"/>
    </edge>
    <edge id=":center2_16" function="internal">
        <lane id=":center2_16_0" index="0" speed="13.89" length="20.80" shape="289.60,95.20 310.40,95.20"/>
        <lane id=":center2_16_1" index="1" speed="13.89" length="20.80" shape="289.60,98.40 310.40,98.40"/>
    </edge>
    <edge id=":center2_18" function="internal">
        <lane id=":center2_18_0" index="0" speed="9.26" length="5.01" shape="289.60,98.40 294.56,99.11"/>
    </edge>
    <edge id=":center2_19" function="internal">
        <lane id=":center2_19_0" index="0" speed="3.65" length="1.44" shape="289.60,98.40 290.80,99.20"/>
    </edge>
    <edge id=":center2_26" function="internal">
        <lane id=":center2_26_0" index="0" speed="9.26" length="14.34" shape="294.56,99.11 294.85,99.15 298.60,101.40 300.85,105.15 301.60,110.40"/>
    </edge>
    <edge id=":center2_27" function="internal">
        <lane id=":center2_27_0" index="0" speed="3.65" length="3.23" shape="290.80,99.20 291.20,100.00 290.80,100.80 289.60,101.60"/>
    </edge>
    <edge id=":east_0" function="internal">
        <lane id=":east_0_0" index="0" speed="3.65" length="4.67" shape="400.00,98.40 401.20,99.20 401.60,100.00 401.20,100.80 400.00,101.60"/>
    </edge>
    <edge id=":north_0" function="internal">
        <lane id=":north_0_0" index="0" speed="3.65" length="4.67" shape="101.60,200.00 100.80,201.20 100.00,201.60 99.20,201.20 98.40,200.00"/>
    </edge>
    <edge id=":north2_0" function="internal">
        <lane id=":north2_0_0" index="0" speed="3.65" length="4.67" shape="301.60,200.00 300.80,201.20 300.00,201.60 299.20,201.20 298.40,200.00"/>
    </edge>
    <edge id=":south_0" function="internal">
        <lane id=":south_0_0" index="0" speed="3.65" length="4.67" shape="98.40,0.00 99.20,-1.20 100.00,-1.60 100.80,-1.20 101.60,0.00"/>
    </edge>
    <edge id=":south2_0" function="internal">
        <lane id=":south2_0_0" index="0" speed="3.65" length="4.67" shape="298.40,0.00 299.20,-1.20 300.00,-1.60 300.80,-1.20 301.60,0.00"/>
    </edge>
    <edge id=":west_0" function="internal">
        <lane id=":west_0_0" index="0" speed="3.65" length="4.67" shape="0.00,101.60 -1.20,100.80 -1.60,100.00 -1.20,99.20 0.00,98.40"/>
    </edge>

    <edge id="east_in" from="east" to="center2" priority="-1">
        <lane id="east_in_0" index="0" speed="13.89" length="89.60" shape="400.00,104.80 310.40,104.80"/>
        <lane id="east_in_1" index="1" speed="13.89" length="89.60" shape="400.00,101.60 310.40,101.60"/>
    </edge>
    <edge id="east_out" from="center2" to="east" priority="-1">
        <lane id="east_out_0" index="0" speed="13.89" length="89.60" shape="310.40,95.20 400.00,95.20"/>
        <lane id="east_out_1" index="1" speed="13.89" length="89.60" shape="310.40,98.40 400.00,98.40"/>
    </edge>
    <edge id="link_12" from="center" to="center2" priority="-1">
        <lane id="link_12_0" index="0" speed="13.89" length="179.20" shape="110.40,95.20 289.60,95.20"/>
        <lane id="link_12_1" index="1" speed="13.89" length="179.20" shape="110.40,98.40 289.60,98.40"/>
    </edge>
    <edge id="link_21" from="center2" to="center" priority="-1">
        <lane id="link_21_0" index="0" speed="13.89" length="179.20" shape="289.60,104.80 110.40,104.80"/>
        <lane id="link_21_1" index="1" speed="13.89" length="179.20" shape="289.60,101.60 110.40,101.60"/>
    </edge>
    <edge id="north2_in" from="north2" to="center2" priority="-1">
        <lane id="north2_in_0" index="0" speed="13.89" length="89.60" shape="295.20,200.00 295.20,110.40"/>
        <lane id="north2_in_1" index="1" speed="13.89" length="89.60" shape="298.40,200.00 298.40,110.40"/>
    </edge>
    <edge id="north2_out" from="center2" to="north2" priority="-1">
        <lane id="north2_out_0" index="0" speed="13.89" length="89.60" shape="304.80,110.40 304.80,200.00"/>
        <lane id="north2_out_1" index="1" speed="13.89" length="89.60" shape="301.60,110.40 301.60,200.00"/>
    </edge>
    <edge id="north_in" from="north" to="center" priority="-1">
        <lane id="north_in_0" index="0" speed="13.89" length="89.60" shape="95.20,200.00 95.20,110.40"/>
        <lane id="north_in_1" index="1" speed="13.89" length="89.60" shape="98.40,200.00 98.40,110.40"/>
    </edge>
    <edge id="north_out" from="center" to="north" priority="-1">
        <lane id="north_out_0" index="0" speed="13.89" length="89.60" shape="104.80,110.40 104.80,200.00"/>
        <lane id="north_out_1" index="1" speed="13.89" length="89.60" shape="101.60,110.40 101.60,200.00"/>
    </edge>
    <edge id="south2_in" from="south2" to="center2" priority="-1">
        <lane id="south2_in_0" index="0" speed="13.89" length="89.60" shape="304.80,0.00 304.80,89.60"/>
        <lane id="south2_in_1" index="1" speed="13.89" length="89.60" shape="301.60,0.00 301.60,89.60"/>
    </edge>
    <edge id="south2_out" from="center2" to="south2" priority="-1">
        <lane id="south2_out_0" index="0" speed="13.89" length="89.60" shape="295.20,89.60 295.20,0.00"/>
        <lane id="south2_out_1" index="1" speed="13.89" length="89.60" shape="298.40,89.60 298.40,0.00"/>
    </edge>
    <edge id="south_in" from="south" to="center" priority="-1">
        <lane id="south_in_0" index="0" speed="13.89" length="89.60" shape="104.80,0.00 104.80,89.60"/>
        <lane id="south_in_1" index="1" speed="13.89" length="89.60" shape="101.60,0.00 101.60,89.60"/>
    </edge>
    <edge id="south_out" from="center" to="south" priority="-1">
        <lane id="south_out_0" index="0" speed="13.89" length="89.60" shape="95.20,89.60 95.20,0.00"/>
        <lane id="south_out_1" index="1" speed="13.89" length="89.60" shape="98.40,89.60 98.40,0.00"/>
    </edge>
    <edge id="west_in" from="west" to="center" priority="-1">
        <lane id="west_in_0" index="0" speed="13.89" length="89.60" shape="0.00,95.20 89.60,95.20"/>
        <lane id="west_in_1" index="1" speed="13.89" length="89.60" shape="0.00,98.40 89.60,98.40"/>
    </edge>
    <edge id="west_out" from="center" to="west" priority="-1">
        <lane id="west_out_0" index="0" speed="13.89" length="89.60" shape="89.60,104.80 0.00,104.80"/>
        <lane id="west_out_1" index="1" speed="13.89" length="89.60" shape="89.60,101.60 0.00,101.60"/>
    </edge>

    <tlLogic id="center" type="static" programID="0" offset="0">
        <phase duration="42" state="GGGggrrrrrGGGggrrrrr"/>
        <phase duration="3"  state="yyyyyrrrrryyyyyrrrrr"/>
        <phase duration="42" state="rrrrrGGGggrrrrrGGGgg"/>
        <phase duration="3"  state="rrrrryyyyyrrrrryyyyy"/>
    </tlLogic>
    <tlLogic id="center2" type="static" programID="0" offset="0">
        <phase duration="42" state="GGGggrrrrrGGGggrrrrr"/>
        <phase duration="3"  state="yyyyyrrrrryyyyyrrrrr"/>
        <phase duration="42" state="rrrrrGGGggrrrrrGGGgg"/>
        <phase duration="3"  state="rrrrryyyyyrrrrryyyyy"/>
    </tlLogic>

    <junction id="center" type="traffic_light" x="100.00" y="100.00" incLanes="north_in_0 north_in_1 link_21_0 link_21_1 south_in_0 south_in_1 west_in_0 west_in_1" intLanes=":center_0_0 :center_1_0 :center_1_1 :center_20_0 :center_21_0 :center_5_0 :center_6_0 :center_6_1 :center_22_0 :center_23_0 :center_10_0 :center_11_0 :center_11_1 :center_24_0 :center_25_0 :center_15_0 :center_16_0 :center_16_1 :center_26_0 :center_27_0" shape="93.60,110.40 106.40,110.40 106.84,108.18 107.40,107.40 108.18,106.84 109.18,106.51 110.40,106.40 110.40,93.60 108.18,93.16 107.40,92.60 106.84,91.82 106.51,90.82 106.40,89.60 93.60,89.60 93.16,91.82 92.60,92.60 91.82,93.16 90.82,93.49 89.60,93.60 89.60,106.40 91.82,106.84 92.60,107.40 93.16,108.18 93.49,109.18">
        <request index="0"  response="00000000000000000000" foes="00000000000011000000" cont="0"/>
        <request index="1"  response="01000000000100000000" foes="01111110000111000000" cont="0"/>
        <request index="2"  response="01000000000100000000" foes="01111110000111000000" cont="0"/>
        <request index="3"  response="01000001100100000000" foes="01110001101111000000" cont="1"/>
        <request index="4"  response="01000001100000000000" foes="01000001100000000000" cont="1"/>
        <request index="5"  response="00000001100000000000" foes="00000001100000000000" cont="0"/>
        <request index="6"  response="00000011100000001111" foes="11000011100000001111" cont="0"/>
        <request index="7"  response="00000011100000001111" foes="11000011100000001111" cont="0"/>
        <request index="8"  response="00110011100000001110" foes="00110111100000001110" cont="1"/>
        <request index="9"  response="00110000000000001000" foes="00110000000000001000" cont="1"/>
        <request index="10" response="00000000000000000000" foes="00110000000000000000" cont="0"/>
        <request index="11" response="01000000000100000000" foes="01110000000111111000" cont="0"/>
        <request index="12" response="01000000000100000000" foes="01110000000111111000" cont="0"/>
        <request index="13" response="01000000000100000110" foes="11110000000111000110" cont="1"/>
        <request index="14" response="00000000000100000110" foes="00000000000100000110" cont="1"/>
        <request index="15" response="00000000000000000110" foes="00000000000000000110" cont="0"/>
        <request index="16" response="00000011110000001110" foes="00000011111100001110" cont="0"/>
        <request index="17" response="00000011110000001110" foes="00000011111100001110" cont="0"/>
        <request index="18" response="00000011100011001110" foes="00000011100011011110" cont="1"/>
        <request index="19" response="00000010000011000000" foes="00000010000011000000" cont="1"/>
    </junction>
    <junction id="center2" type="traffic_light" x="300.00" y="100.00" incLanes="north2_in_0 north2_in_1 east_in_0 east_in_1 south2_in_0 south2_in_1 link_12_0 link_12_1" intLanes=":center2_0_0 :center2_1_0 :center2_1_1 :center2_20_0 :center2_21_0 :center2_5_0 :center2_6_0 :center2_6_1 :center2_22_0 :center2_23_0 :center2_10_0 :center2_11_0 :center2_11_1 :center2_24_0 :center2_25_0 :center2_15_0 :center2_16_0 :center2_16_1 :center2_26_0 :center2_27_0" shape="293.60,110.40 306.40,110.40 306.84,108.18 307.40,107.40 308.18,106.84 309.18,106.51 310.40,106.40 310.40,93.60 308.18,93.16 307.40,92.60 306.84,91.82 306.51,90.82 306.40,89.60 293.60,89.60 293.16,91.82 292.60,92.60 291.82,93.16 290.82,93.49 289.60,93.60 289.60,106.40 291.82,106.84 292.60,107.40 293.16,108.18 293.49,109.18">
        <request index="0"  response="00000000000000000000" foes="00000000000011000000" cont="0"/>
        <request index="1"  response="01000000000100000000" foes="01111110000111000000" cont="0"/>
        <request index="2"  response="01000000000100000000" foes="01111110000111000000" cont="0"/>
        <request index="3"  response="01000001100100000000" foes="01110001101111000000" cont="1"/>
        <request index="4"  response="01000001100000000000" foes="01000001100000000000" cont="1"/>
        <request index="5"  response="00000001100000000000" foes="00000001100000000000" cont="0"/>
        <request index="6"  response="00000011100000001111" foes="11000011100000001111" cont="0"/>
        <request index="7"  response="00000011100000001111" foes="11000011100000001111" cont="0"/>
        <request index="8"  response="00110011100000001110" foes="00110111100000001110" cont="1"/>
        <request index="9"  response="00110000000000001000" foes="00110000000000001000" cont="1"/>
        <request index="10" response="00000000000000000000" foes="00110000000000000000" cont="0"/>
        <request index="11" response="01000000000100000000" foes="01110000000111111000" cont="0"/>
        <request index="12" response="01000000000100000000" foes="01110000000111111000" cont="0"/>
        <request index="13" response="01000000000100000110" foes="11110000000111000110" cont="1"/>
        <request index="14" response="00000000000100000110" foes="00000000000100000110" cont="1"/>
        <request index="15" response="00000000000000000110" foes="00000000000000000110" cont="0"/>
        <request index="16" response="00000011110000001110" foes="00000011111100001110" cont="0"/>
        <request index="17" response="00000011110000001110" foes="00000011111100001110" cont="0"/>
        <request index="18" response="00000011100011001110" foes="00000011100011011110" cont="1"/>
        <request index="19" response="00000010000011000000" foes="00000010000011000000" cont="1"/>
    </junction>
    <junction id="east" type="priority" x="400.00" y="100.00" incLanes="east_out_0 east_out_1" intLanes=":east_0_0" shape="400.00,100.00 400.00,93.60 400.00,100.00">
        <request index="0" response="0" foes="0" cont="0"/>
    </junction>
    <junction id="north" type="priority" x="100.00" y="200.00" incLanes="north_out_0 north_out_1" intLanes=":north_0_0" shape="100.00,200.00 106.40,200.00 100.00,200.00">
        <request index="0" response="0" foes="0" cont="0"/>
    </junction>
    <junction id="north2" type="priority" x="300.00" y="200.00" incLanes="north2_out_0 north2_out_1" intLanes=":north2_0_0" shape="300.00,200.00 306.40,200.00 300.00,200.00">
        <request index="0" response="0" foes="0" cont="0"/>
    </junction>
    <junction id="south" type="priority" x="100.00" y="0.00" incLanes="south_out_0 south_out_1" intLanes=":south_0_0" shape="100.00,0.00 93.60,0.00 100.00,0.00">
        <request index="0" response="0" foes="0" cont="0"/>
    </junction>
    <junction id="south2" type="priority" x="300.00" y="0.00" incLanes="south2_out_0 south2_out_1" intLanes=":south2_0_0" shape="300.00,0.00 293.60,0.00 300.00,0.00">
        <request index="0" response="0" foes="0" cont="0"/>
    </junction>
    <junction id="west" type="priority" x="0.00" y="100.00" incLanes="west_out_0 west_out_1" intLanes=":west_0_0" shape="0.00,100.00 0.00,106.40 0.00,100.00">
        <request index="0" response="0" foes="0" cont="0"/>
    </junction>

    <junction id=":center_20_0" type="internal" x="99.11" y="105.44" incLanes=":center_3_0 south_in_0 south_in_1" intLanes=":center_6_0 :center_6_1 :center_8_0 :center_9_0 :center_10_0 :center_11_0 :center_11_1 :center_16_0 :center_16_1 :center_18_0"/>
    <junction id=":center_21_0" type="internal" x="99.20" y="109.20" incLanes=":center_4_0 link_21_0 south_in_0 south_in_1 west_in_1" intLanes=":center_5_0 :center_11_0 :center_11_1 :center_18_0"/>
    <junction id=":center_22_0" type="internal" x="105.44" y="100.89" incLanes=":center_8_0 west_in_0 west_in_1" intLanes=":center_1_0 :center_1_1 :center_3_0 :center_11_0 :center_11_1 :center_13_0 :center_14_0 :center_15_0 :center_16_0 :center_16_1"/>
    <junction id=":center_23_0" type="internal" x="109.20" y="100.80" incLanes=":center_9_0 north_in_1 south_in_0 west_in_0 west_in_1" intLanes=":center_3_0 :center_10_0 :center_16_0 :center_16_1"/>
    <junction id=":center_24_0" type="internal" x="100.89" y="94.56" incLanes=":center_13_0 north_in_0 north_in_1" intLanes=":center_0_0 :center_1_0 :center_1_1 :center_6_0 :center_6_1 :center_8_0 :center_16_0 :center_16_1 :center_18_0 :center_19_0"/>
    <junction id=":center_25_0" type="internal" x="100.80" y="90.80" incLanes=":center_14_0 link_21_1 north_in_0 north_in_1 west_in_0" intLanes=":center_1_0 :center_1_1 :center_8_0 :center_15_0"/>
    <junction id=":center_26_0" type="internal" x="94.56" y="99.11" incLanes=":center_18_0 link_21_0 link_21_1" intLanes=":center_1_0 :center_1_1 :center_3_0 :center_4_0 :center_5_0 :center_6_0 :center_6_1 :center_11_0 :center_11_1 :center_13_0"/>
    <junction id=":center_27_0" type="internal" x="90.80" y="99.20" incLanes=":center_19_0 link_21_0 link_21_1 north_in_0 south_in_1" intLanes=":center_0_0 :center_6_0 :center_6_1 :center_13_0"/>
    <junction id=":center2_20_0" type="internal" x="299.11" y="105.44" incLanes=":center2_3_0 south2_in_0 south2_in_1" intLanes=":center2_6_0 :center2_6_1 :center2_8_0 :center2_9_0 :center2_10_0 :center2_11_0 :center2_11_1 :center2_16_0 :center2_16_1 :center2_18_0"/>
    <junction id=":center2_21_0" type="internal" x="299.20" y="109.20" incLanes=":center2_4_0 east_in_0 link_12_1 south2_in_0 south2_in_1" intLanes=":center2_5_0 :center2_11_0 :center2_11_1 :center2_18_0"/>
    <junction id=":center2_22_0" type="internal" x="305.44" y="100.89" incLanes=":center2_8_0 link_12_0 link_12_1" intLanes=":center2_1_0 :center2_1_1 :center2_3_0 :center2_11_0 :center2_11_1 :center2_13_0 :center2_14_0 :center2_15_0 :center2_16_0 :center2_16_1"/>
    <junction id=":center2_23_0" type="internal" x="309.20" y="100.80" incLanes=":center2_9_0 link_12_0 link_12_1 north2_in_1 south2_in_0" intLanes=":center2_3_0 :center2_10_0 :center2_16_0 :center2_16_1"/>
    <junction id=":center2_24_0" type="internal" x="300.89" y="94.56" incLanes=":center2_13_0 north2_in_0 north2_in_1" intLanes=":center2_0_0 :center2_1_0 :center2_1_1 :center2_6_0 :center2_6_1 :center2_8_0 :center2_16_0 :center2_16_1 :center2_18_0 :center2_19_0"/>
    <junction id=":center2_25_0" type="internal" x="300.80" y="90.80" incLanes=":center2_14_0 east_in_1 link_12_0 north2_in_0 north2_in_1" intLanes=":center2_1_0 :center2_1_1 :center2_8_0 :center2_15_0"/>
    <junction id=":center2_26_0" type="internal" x="294.56" y="99.11" incLanes=":center2_18_0 east_in_0 east_in_1" intLanes=":center2_1_0 :center2_1_1 :center2_3_0 :center2_4_0 :center2_5_0 :center2_6_0 :center2_6_1 :center2_11_0 :center2_11_1 :center2_13_0"/>
    <junction id=":center2_27_0" type="internal" x="290.80" y="99.20" incLanes=":center2_19_0 east_in_0 east_in_1 north2_in_0 south2_in_1" intLanes=":center2_0_0 :center2_6_0 :center2_6_1 :center2_13_0"/>

    <connection from="east_in" to="north2_out" fromLane="0" toLane="0" via=":center2_5_0" tl="center2" linkIndex="5" dir="r" state="o"/>
    <connection from="east_in" to="link_21" fromLane="0" toLane="0" via=":center2_6_0" tl="center2" linkIndex="6" dir="s" state="o"/>
    <connection from="east_in" to="link_21" fromLane="1" toLane="1" via=":center2_6_1" tl="center2" linkIndex="7" dir="s" state="o"/>
    <connection from="east_in" to="south2_out" fromLane="1" toLane="1" via=":center2_8_0" tl="center2" linkIndex="8" dir="l" state="o"/>
    <connection from="east_in" to="east_out" fromLane="1" toLane="1" via=":center2_9_0" tl="center2" linkIndex="9" dir="t" state="o"/>
    <connection from="east_out" to="east_in" fromLane="1" toLane="1" via=":east_0_0" dir="t" state="M"/>
    <connection from="link_12" to="south2_out" fromLane="0" toLane="0" via=":center2_15_0" tl="center2" linkIndex="15" dir="r" state="o"/>
    <connection from="link_12" to="east_out" fromLane="0" toLane="0" via=":center2_16_0" tl="center2" linkIndex="16" dir="s" state="o"/>
    <connection from="link_12" to="east_out" fromLane="1" toLane="1" via=":center2_16_1" tl="center2" linkIndex="17" dir="s" state="o"/>
    <connection from="link_12" to="north2_out" fromLane="1" toLane="1" via=":center2_18_0" tl="center2" linkIndex="18" dir="l" state="o"/>
    <connection from="link_12" to="link_21" fromLane="1" toLane="1" via=":center2_19_0" tl="center2" linkIndex="19" dir="t" state="o"/>
    <connection from="link_21" to="north_out" fromLane="0" toLane="0" via=":center_5_0" tl="center" linkIndex="5" dir="r" state="o"/>
    <connection from="link_21" to="west_out" fromLane="0" toLane="0" via=":center_6_0" tl="center" linkIndex="6" dir="s" state="o"/>
    <connection from="link_21" to="west_out" fromLane="1" toLane="1" via=":center_6_1" tl="center" linkIndex="7" dir="s" state="o"/>
    <connection from="link_21" to="south_out" fromLane="1" toLane="1" via=":center_8_0" tl="center" linkIndex="8" dir="l" state="o"/>
    <connection from="link_21" to="link_12" fromLane="1" toLane="1" via=":center_9_0" tl="center" linkIndex="9" dir="t" state="o"/>
    <connection from="north2_in" to="link_21" fromLane="0" toLane="0" via=":center2_0_0" tl="center2" linkIndex="0" dir="r" state="O"/>
    <connection from="north2_in" to="south2_out" fromLane="0" toLane="0" via=":center2_1_0" tl="center2" linkIndex="1" dir="s" state="O"/>
    <connection from="north2_in" to="south2_out" fromLane="1" toLane="1" via=":center2_1_1" tl="center2" linkIndex="2" dir="s" state="O"/>
    <connection from="north2_in" to="east_out" fromLane="1" toLane="1" via=":center2_3_0" tl="center2" linkIndex="3" dir="l" state="o"/>