<?xml version="1.0" encoding="UTF-8"?>

<!-- generated on 2026-02-23 11:21:46 by Eclipse SUMO netconvert Version 1.21.0
<netconvertConfiguration xmlns:xsi="http://www.w3.org/2001/XMLSchema-instance" xsi:noNamespaceSchemaLocation="http://sumo.dlr.de/xsd/netconvertConfiguration.xsd">

    <input>
        <node-files value="simulations/complejo/nodes.nod.xml"/>
        <edge-files value="simulations/complejo/edges.edg.xml"/>
    </input>

    <output>
        <output-file value="simulations/complejo/intersection.net.xml"/>
    </output>

    <tls_building>
        <tls.guess value="true"/>
    </tls_building>

    <report>
        <no-warnings value="true"/>
    </report>

</netconvertConfiguration>
-->

<net version="1.20" junctionCornerDetail="5" limitTurnSpeed="5.50" xmlns:xsi="http://www.w3.org/2001/XMLSchema-instance" xsi:noNamespaceSchemaLocation="http://sumo.dlr.de/xsd/net_file.xsd">

    <location netOffset="120.00,120.00" convBoundary="0.00,0.00,240.00,240.00" origBoundary="-120.00,-120.00,120.00,120.00" projParameter="!"/>

    <edge id=":center_0" function="internal">
        <lane id=":center_0_0" index="0" speed="6.51" length="9.03" shape="112.00,133.60 111.65,131.15 110.60,129.40 108.85,128.35 106.40,128.00"/>
    </edge>
    <edge id=":center_1" function="internal">
        <lane id=":center_1_0" index="0" speed="13.89" length="27.20" shape="112.00,133.60 112.00,106.40"/>
        <lane id=":center_1_1" index="1" speed="13.89" length="27.20" shape="115.20,133.60 115.20,106.40"/>
        <lane id=":center_1_2" index="2" speed="13.89" length="27.20" shape="118.40,133.60 118.40,106.40"/>
    </edge>
    <edge id=":center_4" function="internal">
        <lane id=":center_4_0" index="0" speed="10.36" length="5.01" shape="118.40,133.60 119.11,128.64"/>
    </edge>
    <edge id=":center_5" function="internal">
        <lane id=":center_5_0" index="0" speed="3.65" length="1.44" shape="118.40,133.60 119.20,132.40"/>
    </edge>
    <edge id=":center_24" function="internal">
        <lane id=":center_24_0" index="0" speed="10.36" length="19.50" shape="119.11,128.64 119.35,126.95 122.20,122.20 126.95,119.35 133.60,118.40"/>
    </edge>
    <edge id=":center_25" function="internal">
        <lane id=":center_25_0" index="0" speed="3.65" length="3.23" shape="119.20,132.40 120.00,132.00 120.80,132.40 121.60,133.60"/>
    </edge>
    <edge id=":center_6" function="internal">
        <lane id=":center_6_0" index="0" speed="6.51" length="9.03" shape="133.60,128.00 131.15,128.35 129.40,129.40 128.35,131.15 128.00,133.60"/>
    </edge>
    <edge id=":center_7" function="internal">
        <lane id=":center_7_0" index="0" speed="13.89" length="27.20" shape="133.60,128.00 106.40,128.00"/>
        <lane id=":center_7_1" index="1" speed="13.89" length="27.20" shape="133.60,124.80 106.40,124.80"/>
        <lane id=":center_7_2" index="2" speed="13.89" length="27.20" shape="133.60,121.60 106.40,121.60"/>
    </edge>
    <edge id=":center_10" function="internal">
        <lane id=":center_10_0" index="0" speed="10.36" length="5.01" shape="133.60,121.60 128.64,120.89"/>
    </edge>
    <edge id=":center_11" function="internal">
        <lane id=":center_11_0" index="0" speed="3.65" length="1.44" shape="133.60,121.60 132.40,120.80"/>
    </edge>
    <edge id=":center_26" function="internal">
        <lane id=":center_26_0" index="0" speed="10.36" length="19.50" shape="128.64,120.89 126.95,120.65 122.20,117.80 119.35,113.05 118.40,106.40"/>
    </edge>
    <edge id=":center_27" function="internal">
        <lane id=":center_27_0" index="0" speed="3.65" length="3.23" shape="132.40,120.80 132.00,120.00 132.40,119.20 133.60,118.40"/>
    </edge>
    <edge id=":center_12" function="internal">
        <lane id=":center_12_0" index="0" speed="6.51" length="9.03" shape="128.00,106.40 128.35,108.85 129.40,110.60 131.15,111.65 133.60,112.00"/>
    </edge>
    <edge id=":center_13" function="internal">
        <lane id=":center_13_0" index="0" speed="13.89" length="27.20" shape="128.00,106.40 128.00,133.60"/>
        <lane id=":center_13_1" index="1" speed="13.89" length="27.20" shape="124.80,106.40 124.80,133.60"/>
        <lane id=":center_13_2" index="2" speed="13.89" length="27.20" shape="121.60,106.40 121.60,133.60"/>
    </edge>
    <edge id=":center_16" function="internal">
        <lane id=":center_16_0" index="0" speed="10.36" length="5.01" shape="121.60,106.40 120.89,111.36"/>
    </edge>
    <edge id=":center_17" function="internal">
        <lane id=":center_17_0" index="0" speed="3.65" length="1.44" shape="121.60,106.40 120.80,107.60"/>
    </edge>
    <edge id=":center_28" function="internal">
        <lane id=":center_28_0" index="0" speed="10.36" length="19.50" shape="120.89,111.36 120.65,113.05 117.80,117.80 113.05,120.65 106.40,121.60"/>
    </edge>
    <edge id=":center_29" function="internal">
        <lane id=":center_29_0" index="0" speed="3.65" length="3.23" shape="120.80,107.60 120.00,108.00 119.20,107.60 118.40,106.40"/>
    </edge>
    <edge id=":center_18" function="internal">
        <lane id=":center_18_0" index="0" speed="6.51" length="9.03" shape="106.40,112.00 108.85,111.65 110.60,110.60 111.65,108.85 112.00,106.40"/>
    </edge>
    <edge id=":center_19" function="internal">
        <lane id=":center_19_0" index="0" speed="13.89" length="27.20" shape="106.40,112.00 133.60,112.00"/>
        <lane id=":center_19_1" index="1" speed="13.89" length="27.20" shape="106.40,115.20 133.60,115.20"/>
        <lane id=":center_19_2" index="2" speed="13.89" length="27.20" shape="106.40,118.40 133.60,118.40"/>
    </edge>
    <edge id=":center_22" function="internal">
        <lane id=":center_22_0" index="0" speed="10.36" length="5.01" shape="106.40,118.40 111.36,119.11"/>
    </edge>
    <edge id=":center_23" function="internal">
        <lane id=":center_23_0" index="0" speed="3.65" length="1.44" shape="106.40,118.40 107.60,119.20"/>
    </edge>
    <edge id=":center_30" function="internal">
        <lane id=":center_30_0" index="0" speed="10.36" length="19.50" shape="111.36,119.11 113.05,119.35 117.80,122.20 120.65,126.95 121.60,133.60"/>
    </edge>
    <edge id=":center_31" function="internal">
        <lane id=":center_31_0" index="0" speed="3.65" length="3.23" shape="107.60,119.20 108.00,120.00 107.60,120.80 106.40,121.60"/>
    </edge>
    <edge id=":east_0" function="internal">
        <lane id=":east_0_0" index="0" speed="3.65" length="4.67" shape="240.00,118.40 241.20,119.20 241.60,120.00 241.20,120.80 240.00,121.60"/>
    </edge>
    <edge id=":north_0" function="internal">
        <lane id=":north_0_0" index="0" speed="3.65" length="4.67" shape="121.60,240.00 120.80,241.20 120.00,241.60 119.20,241.20 118.40,240.00"/>
    </edge>
    <edge id=":south_0" function="internal">
        <lane id=":south_0_0" index="0" speed="3.65" length="4.67" shape="118.40,0.00 119.20,-1.20 120.00,-1.60 120.80,-1.20 121.60,0.00"/>
    </edge>
    <edge id=":west_0" function="internal">
        <lane id=":west_0_0" index="0" speed="3.65" length="4.67" shape="0.00,121.60 -1.20,120.80 -1.60,120.00 -1.20,119.20 0.00,118.40"/>
    </edge>

    <edge id="east_in" from="east" to="center" priority="-1">
        <lane id="east_in_0" index="0" speed="13.89" length="106.40" shape="240.00,128.00 133.60,128.00"/>
        <lane id="east_in_1" index="1" speed="13.89" length="106.40" shape="240.00,124.80 133.60,124.80"/>
        <lane id="east_in_2" index="2" speed="13.89" length="106.40" shape="240.00,121.60 133.60,121.60"/>
    </edge>
    <edge id="east_out" from="center" to="east" priority="-1">
        <lane id="east_out_0" index="0" speed="13.89" length="106.40" shape="133.60,112.00 240.00,112.00"/>
        <lane id="east_out_1" index="1" speed="13.89" length="106.40" shape="133.60,115.20 240.00,115.20"/>
        <lane id="east_out_2" index="2" speed="13.89" length="106.40" shape="133.60,118.40 240.00,118.40"/>
    </edge>
    <edge id="north_in" from="north" to="center" priority="-1">
        <lane id="north_in_0" index="0" speed="13.89" length="106.40" shape="112.00,240.00 112.00,133.60"/>
        <lane id="north_in_1" index="1" speed="13.89" length="106.40" shape="115.20,240.00 115.20,133.60"/>
        <lane id="north_in_2" index="2" speed="13.89" length="106.40" shape="118.40,240.00 118.40,133.60"/>
    </edge>
    <edge id="north_out" from="center" to="north" priority="-1">
        <lane id="north_out_0" index="0" speed="13.89" length="106.40" shape="128.00,133.60 128.00,240.00"/>
        <lane id="north_out_1" index="1" speed="13.89" length="106.40" shape="124.80,133.60 124.80,240.00"/>
        <lane id="north_out_2" index="2" speed="13.89" length="106.40" shape="121.60,133.60 121.60,240.00"/>
    </edge>
    <edge id="south_in" from="south" to="center" priority="-1">
        <lane id="south_in_0" index="0" speed="13.89" length="106.40" shape="128.00,0.00 128.00,106.40"/>
        <lane id="south_in_1" index="1" speed="13.89" length="106.40" shape="124.80,0.00 124.80,106.40"/>
        <lane id="south_in_2" index="2" speed="13.89" length="106.40" shape="121.60,0.00 121.60,106.40"/>
    </edge>
    <edge id="south_out" from="center" to="south" priority="-1">
        <lane id="south_out_0" index="0" speed="13.89" length="106.40" shape="112.00,106.40 112.00,0.00"/>
        <lane id="south_out_1" index="1" speed="13.89" length="106.40" shape="115.20,106.40 115.20,0.00"/>
        <lane id="south_out_2" index="2" speed="13.89" length="106.40" shape="118.40,106.40 118.40,0.00"/>
    </edge>
    <edge id="west_in" from="west" to="center" priority="-1">
        <lane id="west_in_0" index="0" speed="13.89" length="106.40" shape="0.00,112.00 106.40,112.00"/>
        <lane id="west_in_1" index="1" speed="13.89" length="106.40" shape="0.00,115.20 106.40,115.20"/>
        <lane id="west_in_2" index="2" speed="13.89" length="106.40" shape="0.00,118.40 106.40,118.40"/>
    </edge>
    <edge id="west_out" from="center" to="west" priority="-1">
        <lane id="west_out_0" index="0" speed="13.89" length="106.40" shape="106.40,128.00 0.00,128.00"/>
        <lane id="west_out_1" index="1" speed="13.89" length="106.40" shape="106.40,124.80 0.00,124.80"/>
        <lane id="west_out_2" index="2" speed="13.89" length="106.40" shape="106.40,121.60 0.00,121.60"/>
    </edge>

    <tlLogic id="center" type="static" programID="0" offset="0">
        <phase duration="42" state="GGGGggrrrrrrGGGGggrrrrrr"/>
        <phase duration="3"  state="yyyyyyrrrrrryyyyyyrrrrrr"/>
        <phase duration="42" state="rrrrrrGGGGggrrrrrrGGGGgg"/>
        <phase duration="3"  state="rrrrrryyyyyyrrrrrryyyyyy"/>
    </tlLogic>

    <junction id="center" type="traffic_light" x="120.00" y="120.00" incLanes="north_in_0 north_in_1 north_in_2 east_in_0 east_in_1 east_in_2 south_in_0 south_in_1 south_in_2 west_in_0 west_in_1 west_in_2" intLanes=":center_0_0 :center_1_0 :center_1_1 :center_1_2 :center_24_0 :center_25_0 :center_6_0 :center_7_0 :center_7_1 :center_7_2 :center_26_0 :center_27_0 :center_12_0 :center_13_0 :center_13_1 :center_13_2 :center_28_0 :center_29_0 :center_18_0 :center_19_0 :center_19_1 :center_19_2 :center_30_0 :center_31_0" shape="110.40,133.60 129.60,133.60 130.04,131.38 130.60,130.60 131.38,130.04 132.38,129.71 133.60,129.60 133.60,110.40 131.38,109.96 130.60,109.40 130.04,108.62 129.71,107.62 129.60,106.40 110.40,106.40 109.96,108.62 109.40,109.40 108.62,109.96 107.62,110.29 106.40,110.40 106.40,129.60 108.62,130.04 109.40,130.60 109.96,131.38 110.29,132.38">
        <request index="0"  response="000000000000000000000000" foes="000000000000001110000000" cont="0"/>
        <request index="1"  response="010000000000010000000000" foes="011111110000011110000000" cont="0"/>
        <request index="2"  response="010000000000010000000000" foes="011111110000011110000000" cont="0"/>
        <request index="3"  response="010000000000010000000000" foes="011111110000011110000000" cont="0"/>
        <request index="4"  response="010000001110010000000000" foes="011110001110111110000000" cont="1"/>
        <request index="5"  response="010000001110000000000000" foes="010000001110000000000000" cont="1"/>
        <request index="6"  response="000000001110000000000000" foes="000000001110000000000000" cont="0"/>
        <request index="7"  response="000000011110000000011111" foes="110000011110000000011111" cont="0"/>
        <request index="8"  response="000000011110000000011111" foes="110000011110000000011111" cont="0"/>
        <request index="9"  response="000000011110000000011111" foes="110000011110000000011111" cont="0"/>
        <request index="10" response="001110011110000000011110" foes="001110111110000000011110" cont="1"/>
        <request index="11" response="001110000000000000010000" foes="001110000000000000010000" cont="1"/>
        <request index="12" response="000000000000000000000000" foes="001110000000000000000000" cont="0"/>
        <request index="13" response="010000000000010000000000" foes="011110000000011111110000" cont="0"/>
        <request index="14" response="010000000000010000000000" foes="011110000000011111110000" cont="0"/>
        <request index="15" response="010000000000010000000000" foes="011110000000011111110000" cont="0"/>
        <request index="16" response="010000000000010000001110" foes="111110000000011110001110" cont="1"/>
        <request index="17" response="000000000000010000001110" foes="000000000000010000001110" cont="1"/>
        <request index="18" response="000000000000000000001110" foes="000000000000000000001110" cont="0"/>
        <request index="19" response="000000011111000000011110" foes="000000011111110000011110" cont="0"/>
        <request index="20" response="000000011111000000011110" foes="000000011111110000011110" cont="0"/>
        <request index="21" response="000000011111000000011110" foes="000000011111110000011110" cont="0"/>
        <request index="22" response="000000011110001110011110" foes="000000011110001110111110" cont="1"/>
        <request index="23" response="000000010000001110000000" foes="000000010000001110000000" cont="1"/>
    </junction>
    <junction id="east" type="priority" x="240.00" y="120.00" incLanes="east_out_0 east_out_1 east_out_2" intLanes=":east_0_0" shape="240.00,120.00 240.00,110.40 240.00,120.00">
        <request index="0" response="0" foes="0" cont="0"/>
    </junction>
    <junction id="north" type="priority" x="120.00" y="240.00" incLanes="north_out_0 north_out_1 north_out_2" intLanes=":north_0_0" shape="120.00,240.00 129.60,240.00 120.00,240.00">
        <request index="0" response="0" foes="0" cont="0"/>
    </junction>
    <junction id="south" type="priority" x="120.00" y="0.00" incLanes="south_out_0 south_out_1 south_out_2" intLanes=":south_0_0" shape="120.00,0.00 110.40,0.00 120.00,0.00">
        <request index="0" response="0" foes="0" cont="0"/>
    </junction>
    <junction id="west" type="priority" x="0.00" y="120.00" incLanes="west_out_0 west_out_1 west_out_2" intLanes=":west_0_0" shape="0.00,120.00 0.00,129.60 0.00,120.00">
        <request index="0" response="0" foes="0" cont="0"/>
    </junction>

    <junction id=":center_24_0" type="internal" x="119.11" y="128.64" incLanes=":center_4_0 south_in_0 south_in_1 south_in_2" intLanes=":center_7_0 :center_7_1 :center_7_2 :center_10_0 :center_11_0 :center_12_0 :center_13_0 :center_13_1 :center_13_2 :center_19_0 :center_19_1 :center_19_2 :center_22_0"/>
    <junction id=":center_25_0" type="internal" x="119.20" y="132.40" incLanes=":center_5_0 east_in_0 south_in_0 south_in_1 south_in_2 west_in_2" intLanes=":center_6_0 :center_13_0 :center_13_1 :center_13_2 :center_22_0"/>
    <junction id=":center_26_0" type="internal" x="128.64" y="120.89" incLanes=":center_10_0 west_in_0 west_in_1 west_in_2" intLanes=":center_1_0 :center_1_1 :center_1_2 :center_4_0 :center_13_0 :center_13_1 :center_13_2 :center_16_0 :center_17_0 :center_18_0 :center_19_0 :center_19_1 :center_19_2"/>
    <junction id=":center_27_0" type="internal" x="132.40" y="120.80" incLanes=":center_11_0 north_in_2 south_in_0 west_in_0 west_in_1 west_in_2" intLanes=":center_4_0 :center_12_0 :center_19_0 :center_19_1 :center_19_2"/>
    <junction id=":center_28_0" type="internal" x="120.89" y="111.36" incLanes=":center_16_0 north_in_0 north_in_1 north_in_2" intLanes=":center_0_0 :center_1_0 :center_1_1 :center_1_2 :center_7_0 :center_7_1 :center_7_2 :center_10_0 :center_19_0 :center_19_1 :center_19_2 :center_22_0 :center_23_0"/>
    <junction id=":center_29_0" type="internal" x="120.80" y="107.60" incLanes=":center_17_0 east_in_2 north_in_0 north_in_1 north_in_2 west_in_0" intLanes=":center_1_0 :center_1_1 :center_1_2 :center_10_0 :center_18_0"/>
    <junction id=":center_30_0" type="internal" x="111.36" y="119.11" incLanes=":center_22_0 east_in_0 east_in_1 east_in_2" intLanes=":center_1_0 :center_1_1 :center_1_2 :center_4_0 :center_5_0 :center_6_0 :center_7_0 :center_7_1 :center_7_2 :center_13_0 :center_13_1 :center_13_2 :center_16_0"/>
    <junction id=":center_31_0" type="internal" x="107.60" y="119.20" incLanes=":center_23_0 east_in_0 east_in_1 east_in_2 north_in_0 south_in_2" intLanes=":center_0_0 :center_7_0 :center_7_1 :center_7_2 :center_16_0"/>

    <connection from="east_in" to="north_out" fromLane="0" toLane="0" via=":center_6_0" tl="center" linkIndex="6" dir="r" state="o"/>
    <connection from="east_in" to="west_out" fromLane="0" toLane="0" via=":center_7_0" tl="center" linkIndex="7" dir="s" state="o"/>
    <connection from="east_in" to="west_out" fromLane="1" toLane="1" via=":center_7_1" tl="center" linkIndex="8" dir="s" state="o"/>
    <connection from="east_in" to="west_out" fromLane="2" toLane="2" via=":center_7_2" tl="center" linkIndex="9" dir="s" state="o"/>
    <connection from="east_in" to="south_out" fromLane="2" toLane="2" via=":center_10_0" tl="center" linkIndex="10" dir="l" state="o"/>
    <connection from="east_in" to="east_out" fromLane="2" toLane="2" via=":center_11_0" tl="center" linkIndex="11" dir="t" state="o"/>
    <connection from="east_out" to="east_in" fromLane="2" toLane="2" via=":east_0_0" dir="t" state="M"/>
    <connection from="north_in" to="west_out" fromLane="0" toLane="0" via=":center_0_0" tl="center" linkIndex="0" dir="r" state="O"/>
    <connection from="north_in" to="south_out" fromLane="0" toLane="0" via=":center_1_0" tl="center" linkIndex="1" dir="s" state="O"/>
    <connection from="north_in" to="south_out" fromLane="1" toLane="1" via=":center_1_1" tl="center" linkIndex="2" dir="s" state="O"/>
    <connection from="north_in" to="south_out" fromLane="2" toLane="2" via=":center_1_2" tl="center" linkIndex="3" dir="s" state="O"/>
    <connection from="north_in" to="east_out" fromLane="2" toLane="2" via=":center_4_0" tl="center" linkIndex="4" dir="l" state="o"/>
    <connection from="north_in" to="north_out" fromLane="2" toLane="2" via=":center_5_0" tl="center" linkIndex="5" dir="t" state="o"/>
    <connection from="north_out" to="north_in" fromLane="2" toLane="2" via=":north_0_0" dir="t" state="M"/>
    <connection from="south_in" to="east_out" fromLane="0" toLane="0" via=":center_12_0" tl="center" linkIndex="12" dir="r" state="O"/>
    <connection from="south_in" to="north_out" fromLane="0" toLane="0" via=":center_13_0" tl="center" linkIndex="13" dir="s" state="O"/>
    <connection from="south_in" to="north_out" fromLane="1" toLane="1" via=":center_13_1" tl="center" linkIndex="14" dir="s" state="O"/>
    <connection from="south_in" to="north_out" fromLane="2" toLane="2" via=":center_13_2" tl="center" linkIndex="15" dir="s" state="O"/>
    <connection from="south_in" to="west_out" fromLane="2" toLane="2" via=":center_16_0" tl="center" linkIndex="16" dir="l" state="o"/>
    <connection from="south_in" to="south_out" fromLane="2" toLane="2" via=":center_17_0" tl="center" linkIndex="17" dir="t" state="o"/>
    <connection from="south_out" to="south_in" fromLane="2" toLane="2" via=":south_0_0" dir="t" state="M"/>
    <connection from="west_in" to="south_out" fromLane="0" toLane="0" via=":center_18_0" tl="center" linkIndex="18" dir="r" state="o"/>
    <connection from="west_in" to="east_out" fromLane="0" toLane="0" via=":center_19_0" tl="center" linkIndex="19" dir="s" state="o"/>
    <connection from="west_in" to="east_out" fromLane="1" toLane="1" via=":center_19_1" tl="center" linkIndex="20" dir="s" state="o"/>
    <connection from="west_in" to="east_out" fromLane="2" toLane="2" via=":center_19_2" tl="center" linkIndex="21" dir="s" state="o"/>
    <connection from="west_in" to="north_out" fromLane="2" toLane="2" via=":center_22_0" tl="center" linkIndex="22" dir="l" state="o"/>
    <connection from="west_in" to="west_out" fromLane="2" toLane="2" via=":center_23_0" tl="center" linkIndex="23" dir="t" state="o"/>
    <connection from="west_out" to="west_in" fromLane="2" toLane="2" via=":west_0_0" dir="t" state="M"/>

    <connection from=":center_0" to="west_out" fromLane="0" toLane="0" dir="r" state="M"/>
    <connection from=":center_1" to="south_out" fromLane="0" toLane="0" dir="s" state="M"/>
    <connection from=":center_1" to="south_out" fromLane="1" toLane="1" dir="s" state="M"/>
    <connection from=":center_1" to="south_out" fromLane="2" toLane="2" dir="s" state="M"/>
    <connection from=":center_4" to="east_out" fromLane="0" toLane="2" via=":center_24_0" dir="l" state="m"/>
    <connection from=":center_24" to="east_out" fromLane="0" toLane="2" dir="l" state="M"/>
    <connection from=":center_5" to="north_out" fromLane="0" toLane="2" via=":center_25_0" dir="t" state="m"/>
    <connection from=":center_25" to="north_out" fromLane="0" toLane="2" dir="t" state="M"/>
    <connection from=":center_6" to="north_out" fromLane="0" toLane="0" dir="r" state="M"/>
    <connection from=":center_7" to="west_out" fromLane="0" toLane="0" dir="s" state="M"/>
    <connection from=":center_7" to="west_out" fromLane="1" toLane="1" dir="s" state="M"/>
    <connection from=":center_7" to="west_out" fromLane="2" toLane="2" dir="s" state="M"/>
    <connection from=":center_10" to="south_out" fromLane="0" toLane="2" via=":center_26_0" dir="l" state="m"/>
    <connection from=":center_26" to="south_out" fromLane="0" toLane="2" dir="l" state="M"/>
    <connection from=":center_11" to="east_out" fromLane="0" toLane="2" via=":center_27_0" dir="t" state="m"/>
    <connection from=":center_27" to="east_out" fromLane="0" toLane="2" dir="t" state="M"/>
    <connection from=":center_12" to="east_out" fromLane="0" toLane="0" dir="r" state="M"/>
    <connection from=":center_13" to="north_out" fromLane="0" toLane="0" dir="s" state="M"/>
    <connection from=":center_13" to="north_out" fromLane="1" toLane="1" dir="s" state="M"/>
    <connection from=":center_13" to="north_out" fromLane="2" toLane="2" dir="s" state="M"/>
    <connection from=":center_16" to="west_out" fromLane="0" toLane="2" via=":center_28_0" dir="l" state="m"/>
    <connection from=":center_28" to="west_out" fromLane="0" toLane="2" dir="l" state="M"/>
    <connection from=":center_17" to="south_out" fromLane="0" toLane="2" via=":center_29_0" dir="t" state="m"/>
    <connection from=":center_29" to="south_out" fromLane="0" toLane="2" dir="t" state="M"/>
    <connection from=":center_18" to="south_out" fromLane="0" toLane="0" dir="r" state="M"/>
    <connection from=":center_19" to="east_out" fromLane="0" toLane="0" dir="s" state="M"/>
    <connection from=":center_19" to="east_out" fromLane="1" toLane="1" dir="s" state="M"/>
    <connection from=":center_19" to="east_out" fromLane="2" toLane="2" dir="s" state="M"/>
    <connection from=":center_22" to="north_out" fromLane="0" toLane="2" via=":center_30_0" dir="l" state="m"/>
    <connection from=":center_30" to="north_out" fromLane="0" toLane="2" dir="l" state="M"/>
    <connection from=":center_23" to="west_out" fromLane="0" toLane="2" via=":center_31_0" dir="t" state="m"/>
    <connection from=":center_31" to="west_out" fromLane="0" toLane="2" dir="t" state="M"/>
    <connection from=":east_0" to="east_in" fromLane="0" toLane="2" dir="t" state="M"/>
    <connection from=":north_0" to="north_in" fromLane="0" toLane="2" dir="t" state="M"/>
    <connection from=":south_0" to="south_in" fromLane="0" toLane="2" dir="t" state="M"/>
    <connection from=":west_0" to="west_in" fromLane="0" toLane="2" dir="t" state="M"/>

</net>
