<?xml version="1.0" encoding="UTF-8"?>
<routes>
    <vType id="coche" accel="2.6" decel="4.5" sigma="0.5" length="5" maxSpeed="50" color="yellow"/>
    <vType id="moto" accel="4.0" decel="6.0" sigma="0.5" length="2.2" maxSpeed="60" color="blue"/>
    <vType id="bus" accel="1.2" decel="4.0" sigma="0.3" length="12" maxSpeed="30" color="green"/>
    <vType id="camion" accel="1.0" decel="3.5" sigma="0.5" length="12" maxSpeed="25" color="gray"/>
    <vType id="emergencia" accel="3.5" decel="5.0" sigma="0.2" length="6" maxSpeed="70" color="red"/>
    
    <!-- Rutas rectas -->
    <route id="r_ns" edges="north_in south_out"/>
    <route id="r_sn" edges="south_in north_out"/>
    <route id="r_ew" edges="east_in west_out"/>
    <route id="r_we" edges="west_in east_out"/>
    <!-- Giros derechas -->
    <route id="r_ne" edges="north_in east_out"/>
    <route id="r_es" edges="east_in south_out"/>
    <route id="r_sw" edges="south_in west_out"/>
    <route id="r_wn" edges="west_in north_out"/>
    <!-- Giros izquierdas -->
    <route id="r_nw" edges="north_in west_out"/>
    <route id="r_en" edges="east_in north_out"/>
    <route id="r_se" edges="south_in east_out"/>
    <route id="r_ws" edges="west_in south_out"/>
    
    <!-- Tráfico recto (principal) -->
    <flow id="c_ns" type="coche" route="r_ns" begin="0" end="3600" vehsPerHour="500" departLane="best"/>
    <flow id="c_sn" type="coche" route="r_sn" begin="0" end="3600" vehsPerHour="480" departLane="best"/>
    <flow id="c_ew" type="coche" route="r_ew" begin="0" end="3600" vehsPerHour="450" departLane="best"/>
    <flow id="c_we" type="coche" route="r_we" begin="0" end="3600" vehsPerHour="420" departLane="best"/>
    <!-- Giros derechas -->
    <flow id="c_ne" type="coche" route="r_ne" begin="0" end="3600" vehsPerHour="100" departLane="best"/>
    <flow id="c_es" type="coche" route="r_es" begin="0" end="3600" vehsPerHour="90" departLane="best"/>
    <flow id="c_sw" type="coche" route="r_sw" begin="0" end="3600" vehsPerHour="85" departLane="best"/>
    <flow id="c_wn" type="coche" route="r_wn" begin="0" end="3600" vehsPerHour="95" departLane="best"/>
    <!-- Giros izquierdas -->
    <flow id="c_nw" type="coche" route="r_nw" begin="0" end="3600" vehsPerHour="70" departLane="best"/>
    <flow id="c_en" type="coche" route="r_en" begin="0" end="3600" vehsPerHour="65" departLane="best"/>
    <flow id="c_se" type="coche" route="r_se" begin="0" end="3600" vehsPerHour="60" departLane="best"/>
    <flow id="c_ws" type="coche" route="r_ws" begin="0" end="3600" vehsPerHour="75" departLane="best"/>
    <!-- Motos -->
    <flow id="m_ns" type="moto" route="r_ns" begin="0" end="3600" vehsPerHour="100"/>
    <flow id="m_ew" type="moto" route="r_ew" begin="0" end="3600" vehsPerHour="80"/>
    <!-- Buses -->
    <flow id="b_ns" type="bus" route="r_ns" begin="0" end="3600" period="240"/>
    <flow id="b_ew" type="bus" route="r_ew" begin="120" end="3600" period="300"/>
    <!-- Camiones -->
    <flow id="t_ns" type="camion" route="r_ns" begin="0" end="3600" vehsPerHour="40"/>
    <flow id="t_ew" type="camion" route="r_ew" begin="0" end="3600" vehsPerHour="35"/>
    <!-- Emergencias -->
    <flow id="e_ns" type="emergencia" route="r_ns" begin="300" end="3600" period="600"/>
    <flow id="e_ew" type="emergencia" route="r_ew" begin="450" end="3600" period="700"/>
</routes>